5291
  -OEChem-03021110573D

 68 72  0     0  0  0  0  0  0999 V2000
   -0.8276    0.2486   -1.0418 O   0  0  0  0  0  0  0  0  0  0  0  0
    6.4576    0.2661   -0.6555 N   0  0  0  0  0  0  0  0  0  0  0  0
    8.5148   -0.1616    1.3305 N   0  0  0  0  0  0  0  0  0  0  0  0
   -0.1066   -1.8326   -0.2329 N   0  0  0  0  0  0  0  0  0  0  0  0
   -4.9447   -1.8876   -0.2704 N   0  0  0  0  0  0  0  0  0  0  0  0
   -4.3746    0.3576    0.1045 N   0  0  0  0  0  0  0  0  0  0  0  0
   -6.6079   -0.2578   -0.5599 N   0  0  0  0  0  0  0  0  0  0  0  0
   -2.8521    4.8337    0.2988 N   0  0  0  0  0  0  0  0  0  0  0  0
    6.1553    0.3240    0.7799 C   0  0  0  0  0  0  0  0  0  0  0  0
    7.8492    0.6633   -0.9021 C   0  0  0  0  0  0  0  0  0  0  0  0
    7.1228   -0.5578    1.5768 C   0  0  0  0  0  0  0  0  0  0  0  0
    8.8175   -0.2175   -0.1048 C   0  0  0  0  0  0  0  0  0  0  0  0
    5.5353    1.1080   -1.4148 C   0  0  0  0  0  0  0  0  0  0  0  0
    9.4364   -1.0051    2.0887 C   0  0  0  0  0  0  0  0  0  0  0  0
    4.1042    0.6761   -1.2347 C   0  0  0  0  0  0  0  0  0  0  0  0
    3.7827   -0.6720   -1.3051 C   0  0  0  0  0  0  0  0  0  0  0  0
    3.1263    1.6331   -1.0017 C   0  0  0  0  0  0  0  0  0  0  0  0
    2.4565   -1.0715   -1.1393 C   0  0  0  0  0  0  0  0  0  0  0  0
    1.8002    1.2338   -0.8357 C   0  0  0  0  0  0  0  0  0  0  0  0
    1.4653   -0.1185   -0.9046 C   0  0  0  0  0  0  0  0  0  0  0  0
    0.0830   -0.5355   -0.7298 C   0  0  0  0  0  0  0  0  0  0  0  0
   -1.3242   -2.5126    0.0151 C   0  0  0  0  0  0  0  0  0  0  0  0
   -3.7215   -2.5414   -0.0031 C   0  0  0  0  0  0  0  0  0  0  0  0
   -2.5228   -1.8710   -0.2463 C   0  0  0  0  0  0  0  0  0  0  0  0
   -3.7034   -3.8430    0.4979 C   0  0  0  0  0  0  0  0  0  0  0  0
   -1.2879   -3.8040    0.5124 C   0  0  0  0  0  0  0  0  0  0  0  0
   -2.4866   -4.4744    0.7558 C   0  0  0  0  0  0  0  0  0  0  0  0
   -4.9723   -4.5838    0.7689 C   0  0  0  0  0  0  0  0  0  0  0  0
   -5.3266   -0.5337   -0.2407 C   0  0  0  0  0  0  0  0  0  0  0  0
   -4.7751    1.6458    0.1230 C   0  0  0  0  0  0  0  0  0  0  0  0
   -3.7560    2.5992    0.4912 C   0  0  0  0  0  0  0  0  0  0  0  0
   -6.0569    2.0547   -0.1837 C   0  0  0  0  0  0  0  0  0  0  0  0
   -6.9398    1.0495   -0.5211 C   0  0  0  0  0  0  0  0  0  0  0  0
   -2.7243    2.2490    1.3556 C   0  0  0  0  0  0  0  0  0  0  0  0
   -3.7742    3.8929   -0.0052 C   0  0  0  0  0  0  0  0  0  0  0  0
   -1.7569    3.1894    1.6923 C   0  0  0  0  0  0  0  0  0  0  0  0
   -1.8648    4.4564    1.1418 C   0  0  0  0  0  0  0  0  0  0  0  0
    6.2161    1.3575    1.1487 H   0  0  0  0  0  0  0  0  0  0  0  0
    5.1467   -0.0373    1.0060 H   0  0  0  0  0  0  0  0  0  0  0  0
    8.0827    0.5537   -1.9681 H   0  0  0  0  0  0  0  0  0  0  0  0
    8.0090    1.7178   -0.6393 H   0  0  0  0  0  0  0  0  0  0  0  0
    6.8911   -0.4479    2.6432 H   0  0  0  0  0  0  0  0  0  0  0  0
    6.9627   -1.6124    1.3143 H   0  0  0  0  0  0  0  0  0  0  0  0
    8.7669   -1.2503   -0.4758 H   0  0  0  0  0  0  0  0  0  0  0  0
    9.8378    0.1434   -0.2827 H   0  0  0  0  0  0  0  0  0  0  0  0
    5.6549    2.1619   -1.1291 H   0  0  0  0  0  0  0  0  0  0  0  0
    5.7622    1.0411   -2.4869 H   0  0  0  0  0  0  0  0  0  0  0  0
   10.4708   -0.6770    1.9372 H   0  0  0  0  0  0  0  0  0  0  0  0
    9.3641   -2.0606    1.8025 H   0  0  0  0  0  0  0  0  0  0  0  0
    9.2357   -0.9248    3.1628 H   0  0  0  0  0  0  0  0  0  0  0  0
    4.5361   -1.4277   -1.5094 H   0  0  0  0  0  0  0  0  0  0  0  0
    3.3744    2.6892   -0.9456 H   0  0  0  0  0  0  0  0  0  0  0  0
    2.2390   -2.1304   -1.2426 H   0  0  0  0  0  0  0  0  0  0  0  0
    1.0439    1.9918   -0.6479 H   0  0  0  0  0  0  0  0  0  0  0  0
    0.7149   -2.3706    0.0288 H   0  0  0  0  0  0  0  0  0  0  0  0
   -2.5694   -0.8966   -0.6987 H   0  0  0  0  0  0  0  0  0  0  0  0
   -0.3457   -4.3050    0.7161 H   0  0  0  0  0  0  0  0  0  0  0  0
   -2.4543   -5.4884    1.1455 H   0  0  0  0  0  0  0  0  0  0  0  0
   -5.7332   -2.5044   -0.4357 H   0  0  0  0  0  0  0  0  0  0  0  0
   -5.6194   -4.0112    1.4417 H   0  0  0  0  0  0  0  0  0  0  0  0
   -4.7836   -5.5486    1.2524 H   0  0  0  0  0  0  0  0  0  0  0  0
   -5.5050   -4.7850   -0.1664 H   0  0  0  0  0  0  0  0  0  0  0  0
   -6.3940    3.0829   -0.1521 H   0  0  0  0  0  0  0  0  0  0  0  0
   -7.9712    1.2730   -0.7724 H   0  0  0  0  0  0  0  0  0  0  0  0
   -2.6516    1.2546    1.7888 H   0  0  0  0  0  0  0  0  0  0  0  0
   -4.5283    4.2446   -0.7026 H   0  0  0  0  0  0  0  0  0  0  0  0
   -0.9444    2.9389    2.3645 H   0  0  0  0  0  0  0  0  0  0  0  0
   -1.1356    5.2260    1.3726 H   0  0  0  0  0  0  0  0  0  0  0  0
  1 21  2  0  0  0  0
  2  9  1  0  0  0  0
  2 10  1  0  0  0  0
  2 13  1  0  0  0  0
  3 11  1  0  0  0  0
  3 12  1  0  0  0  0
  3 14  1  0  0  0  0
  4 21  1  0  0  0  0
  4 22  1  0  0  0  0
  4 55  1  0  0  0  0
  5 23  1  0  0  0  0
  5 29  1  0  0  0  0
  5 59  1  0  0  0  0
  6 29  1  0  0  0  0
  6 30  2  0  0  0  0
  7 29  2  0  0  0  0
  7 33  1  0  0  0  0
  8 35  1  0  0  0  0
  8 37  2  0  0  0  0
  9 11  1  0  0  0  0
  9 38  1  0  0  0  0
  9 39  1  0  0  0  0
 10 12  1  0  0  0  0
 10 40  1  0  0  0  0
 10 41  1  0  0  0  0
 11 42  1  0  0  0  0
 11 43  1  0  0  0  0
 12 44  1  0  0  0  0
 12 45  1  0  0  0  0
 13 15  1  0  0  0  0
 13 46  1  0  0  0  0
 13 47  1  0  0  0  0
 14 48  1  0  0  0  0
 14 49  1  0  0  0  0
 14 50  1  0  0  0  0
 15 16  2  0  0  0  0
 15 17  1  0  0  0  0
 16 18  1  0  0  0  0
 16 51  1  0  0  0  0
 17 19  2  0  0  0  0
 17 52  1  0  0  0  0
 18 20  2  0  0  0  0
 18 53  1  0  0  0  0
 19 20  1  0  0  0  0
 19 54  1  0  0  0  0
 20 21  1  0  0  0  0
 22 24  2  0  0  0  0
 22 26  1  0  0  0  0
 23 24  1  0  0  0  0
 23 25  2  0  0  0  0
 24 56  1  0  0  0  0
 25 27  1  0  0  0  0
 25 28  1  0  0  0  0
 26 27  2  0  0  0  0
 26 57  1  0  0  0  0
 27 58  1  0  0  0  0
 28 60  1  0  0  0  0
 28 61  1  0  0  0  0
 28 62  1  0  0  0  0
 30 31  1  0  0  0  0
 30 32  1  0  0  0  0
 31 34  1  0  0  0  0
 31 35  2  0  0  0  0
 32 33  2  0  0  0  0
 32 63  1  0  0  0  0
 33 64  1  0  0  0  0
 34 36  2  0  0  0  0
 34 65  1  0  0  0  0
 35 66  1  0  0  0  0
 36 37  1  0  0  0  0
 36 67  1  0  0  0  0
 37 68  1  0  0  0  0
M  END
> <PUBCHEM_COMPOUND_CID>
5291

> <PUBCHEM_CONFORMER_RMSD>
1

> <PUBCHEM_CONFORMER_DIVERSEORDER>
1
267
158
23
163
219
114
243
244
76
137
154
275
209
220
277
205
178
200
47
56
110
97
173
102
127
250
68
145
191
280
228
78
107
283
197
183
132
71
59
264
164
41
136
43
57
60
279
89
131
187
221
120
150
201
265
207
249
92
174
3
213
118
226
155
245
255
27
161
232
18
227
51
133
238
140
65
186
251
242
151
37
75
273
106
119
162
138
123
143
134
85
45
176
139
88
196
199
144
188
86
40
224
192
214
284
100
113
104
46
141
50
156
135
83
246
49
190
87
274
152
35
260
53
271
67
58
20
204
179
175
74
171
101
234
281
95
235
230
239
215
36
177
80
165
52
254
14
248
166
278
229
157
19
236
193
153
32
44
223
211
129
194
79
105
206
5
268
160
269
122
142
61
262
272
55
212
17
266
225
94
64
167
263
222
180
121
257
112
217
93
195
54
149
185
169
15
108
130
90
25
98
261
170
259
126
276
84
62
148
72
48
256
202
22
21
33
117
208
2
128
38
282
203
10
252
168
147
270
26
4
172
124
77
231
6
181
111
115
28
182
237
184
198
109
69
241
247
159
81
13
91
31
146
210
82
29
189
258
42
70
218
7
66
233
30
73
253
103
11
240
63
96
39
216
34
16
99
9
12
125
116
8
24

> <PUBCHEM_MMFF94_PARTIAL_CHARGES>
51
1 -0.57
10 0.27
11 0.27
12 0.27
13 0.41
14 0.27
15 -0.14
16 -0.15
17 -0.15
18 -0.15
19 -0.15
2 -0.81
20 0.09
21 0.54
22 0.12
23 0.1
24 -0.15
25 -0.14
26 -0.15
27 -0.15
28 0.14
29 0.72
3 -0.81
30 0.31
32 -0.15
33 0.16
34 -0.15
35 0.16
36 -0.15
37 0.16
4 -0.55
5 -0.6
51 0.15
52 0.15
53 0.15
54 0.15
55 0.37
56 0.15
57 0.15
58 0.15
59 0.4
6 -0.62
63 0.15
64 0.15
65 0.15
66 0.15
67 0.15
68 0.15
7 -0.62
8 -0.62
9 0.27

> <PUBCHEM_EFFECTIVE_ROTOR_COUNT>
9.2

> <PUBCHEM_PHARMACOPHORE_FEATURES>
13
1 1 acceptor
1 2 cation
1 3 cation
1 4 donor
1 5 donor
1 6 acceptor
1 8 acceptor
4 5 6 7 29 cation
6 15 16 17 18 19 20 rings
6 2 3 9 10 11 12 rings
6 22 23 24 25 26 27 rings
6 6 7 29 30 32 33 rings
6 8 31 34 35 36 37 rings

> <PUBCHEM_HEAVY_ATOM_COUNT>
37

> <PUBCHEM_ATOM_DEF_STEREO_COUNT>
0

> <PUBCHEM_ATOM_UDEF_STEREO_COUNT>
0

> <PUBCHEM_BOND_DEF_STEREO_COUNT>
0

> <PUBCHEM_BOND_UDEF_STEREO_COUNT>
0

> <PUBCHEM_ISOTOPIC_ATOM_COUNT>
0

> <PUBCHEM_COMPONENT_COUNT>
1

> <PUBCHEM_CACTVS_TAUTO_COUNT>
6

> <PUBCHEM_CONFORMER_ID>
000014AB00000001

> <PUBCHEM_MMFF94_ENERGY>
127.2169

> <PUBCHEM_FEATURE_SELFOVERLAP>
65.968

> <PUBCHEM_SHAPE_FINGERPRINT>
100830 39 18410569591790648508
10951579 204 18191846011942323396
11007060 377 18263350550829242362
11136131 41 18055917838211333218
11621639 254 5256112563113012186
12104220 1 18410858771712017229
12107183 9 18202286900923031614
12128747 34 18114739443044525790
12144603 126 17917707977929321702
13947947 74 18261113024284541377
15021287 119 16774077371460879742
15328829 1 17989212555545365680
15351339 4 18339084891008846571
15400415 2 17761761167342817541
15419008 47 17676767591554480872
15776043 110 17989487459053386634
15890870 6 18341896316729787349
16112460 7 18130509734000889178
19611394 137 18187085044773487248
21133410 221 17823441330251009664
21639891 77 18114458977148097664
21792964 463 17628059106612714220
21859007 373 18186803569843553942
23522609 53 17631145564811383732
23569943 247 16701200654630977130
3504750 166 18337395929052834198
42626532 9 17982162327678936363
5047190 69 18333455326317329672
5085150 59 18334576845505203838
6201320 215 18041849523004704408
6371009 1 18411696612299249365
9981440 41 18197484324569838985

> <PUBCHEM_SHAPE_MULTIPOLES>
720.71
23.61
5.87
1.43
43.59
0.59
-8.02
11.11
-18.7
-1.31
-5.01
-4.94
77.32
-0.11

> <PUBCHEM_SHAPE_SELFOVERLAP>
1568.426

> <PUBCHEM_SHAPE_VOLUME>
390.1

> <PUBCHEM_COORDINATE_TYPE>
2
5
255

$$$$

